dss/export/hidra/Transformer.dss
New Transformer.tr_300162 phases=3 wdg=1 bus=3819265_p_1.1.2.3 kv=10.0 kVA=5000.0 wdg=2 bus=3819265_p_2.1.2.3 kv=0.4 kVA=5000.0 %imag=0 %loadloss=0.4 %noloadloss=0 XHL=3.0 conns=[delta, wye, ] ppm_antifloat=1
New Transformer.tr_300165 phases=3 wdg=1 bus=3810140_p_1.1.2.3 kv=10.0 kVA=5000.0 wdg=2 bus=3810140_p_2.1.2.3 kv=0.4 kVA=5000.0 %imag=0 %loadloss=0.4 %noloadloss=0 XHL=3.0 conns=[delta, wye, ] ppm_antifloat=1
New Transformer.tr_300166 phases=3 wdg=1 bus=3810149_p_1.1.2.3 kv=10.0 kVA=5000.0 wdg=2 bus=3810149_p_2.1.2.3 kv=0.4 kVA=5000.0 %imag=0 %loadloss=0.4 %noloadloss=0 XHL=3.0 conns=[delta, wye, ] ppm_antifloat=1
New Transformer.tr_300167 phases=3 wdg=1 bus=3838518_p_1.1.2.3 kv=10.0 kVA=5000.0 wdg=2 bus=3838518_p_2.1.2.3 kv=0.4 kVA=5000.0 %imag=0 %loadloss=0.4 %noloadloss=0 XHL=3.0 conns=[delta, wye, ] ppm_antifloat=1
New Transformer.tr_300168 phases=3 wdg=1 bus=3747428_p_1.1.2.3 kv=10.0 kVA=5000.0 wdg=2 bus=3747428_p_2.1.2.3 kv=0.4 kVA=5000.0 %imag=0 %loadloss=0.4 %noloadloss=0 XHL=3.0 conns=[delta, wye, ] ppm_antifloat=1
New Transformer.tr_300170 phases=3 wdg=1 bus=3806703_p_1.1.2.3 kv=10.0 kVA=5000.0 wdg=2 bus=3806703_p_2.1.2.3 kv=0.4 kVA=5000.0 %imag=0 %loadloss=0.4 %noloadloss=0 XHL=3.0 conns=[delta, wye, ] ppm_antifloat=1
New Transformer.tr_300171 phases=3 wdg=1 bus=3806706_p_1.1.2.3 kv=10.0 kVA=5000.0 wdg=2 bus=3806706_p_2.1.2.3 kv=0.4 kVA=5000.0 %imag=0 %loadloss=0.4 %noloadloss=0 XHL=3.0 conns=[delta, wye, ] ppm_antifloat=1
New Transformer.tr_300180 phases=3 wdg=1 bus=3812590_p_1.1.2.3 kv=10.0 kVA=5000.0 wdg=2 bus=3812590_p_2.1.2.3 kv=0.4 kVA=5000.0 %imag=0 %loadloss=0.4 %noloadloss=0 XHL=3.0 conns=[delta, wye, ] ppm_antifloat=1
New Transformer.tr_300181 phases=3 wdg=1 bus=3806721_p_1.1.2.3 kv=10.0 kVA=5000.0 wdg=2 bus=3806721_p_2.1.2.3 kv=0.4 kVA=5000.0 %imag=0 %loadloss=0.4 %noloadloss=0 XHL=3.0 conns=[delta, wye, ] ppm_antifloat=1
New Transformer.tr_300183 phases=3 wdg=1 bus=3823263_p_1.1.2.3 kv=10.0 kVA=5000.0 wdg=2 bus=3823263_p_2.1.2.3 kv=0.4 kVA=5000.0 %imag=0 %loadloss=0.4 %noloadloss=0 XHL=3.0 conns=[delta, wye, ] ppm_antifloat=1
New Transformer.tr_300185 phases=3 wdg=1 bus=3808184_p_1.1.2.3 kv=10.0 kVA=5000.0 wdg=2 bus=3808184_p_2.1.2.3 kv=0.4 kVA=5000.0 %imag=0 %loadloss=0.4 %noloadloss=0 XHL=3.0 conns=[delta, wye, ] ppm_antifloat=1
New Transformer.tr_300188 phases=3 wdg=1 bus=4002335_p_1.1.2.3 kv=10.0 kVA=5000.0 wdg=2 bus=4002335_p_2.1.2.3 kv=0.4 kVA=5000.0 %imag=0 %loadloss=0.4 %noloadloss=0 XHL=3.0 conns=[delta, wye, ] ppm_antifloat=1
New Transformer.tr_300189 phases=3 wdg=1 bus=14070073_p_1.1.2.3 kv=10.0 kVA=5000.0 wdg=2 bus=14070073_p_2.1.2.3 kv=0.4 kVA=5000.0 %imag=0 %loadloss=0.4 %noloadloss=0 XHL=3.0 conns=[delta, wye, ] ppm_antifloat=1
New Transformer.tr_300190 phases=3 wdg=1 bus=4002336_p_1.1.2.3 kv=10.0 kVA=5000.0 wdg=2 bus=4002336_p_2.1.2.3 kv=0.4 kVA=5000.0 %imag=0 %loadloss=0.4 %noloadloss=0 XHL=3.0 conns=[delta, wye, ] ppm_antifloat=1
New Transformer.tr_300191 phases=3 wdg=1 bus=3806768_p_1.1.2.3 kv=10.0 kVA=5000.0 wdg=2 bus=3806768_p_2.1.2.3 kv=0.4 kVA=5000.0 %imag=0 %loadloss=0.4 %noloadloss=0 XHL=3.0 conns=[delta, wye, ] ppm_antifloat=1
New Transformer.tr_300192 phases=3 wdg=1 bus=3806374_p_1.1.2.3 kv=10.0 kVA=5000.0 wdg=2 bus=3806374_p_2.1.2.3 kv=0.4 kVA=5000.0 %imag=0 %loadloss=0.4 %noloadloss=0 XHL=3.0 conns=[delta, wye, ] ppm_antifloat=1
New Transformer.tr_300193 phases=3 wdg=1 bus=3817748_p_1.1.2.3 kv=10.0 kVA=5000.0 wdg=2 bus=3817748_p_2.1.2.3 kv=0.4 kVA=5000.0 %imag=0 %loadloss=0.4 %noloadloss=0 XHL=3.0 conns=[delta, wye, ] ppm_antifloat=1
New Transformer.tr_300194 phases=3 wdg=1 bus=3806239_p_1.1.2.3 kv=10.0 kVA=5000.0 wdg=2 bus=3806239_p_2.1.2.3 kv=0.4 kVA=5000.0 %imag=0 %loadloss=0.4 %noloadloss=0 XHL=3.0 conns=[delta, wye, ] ppm_antifloat=1
New Transformer.tr_300200 phases=3 wdg=1 bus=3822095_p_1.1.2.3 kv=10.0 kVA=5000.0 wdg=2 bus=3822095_p_2.1.2.3 kv=0.4 kVA=5000.0 %imag=0 %loadloss=0.4 %noloadloss=0 XHL=3.0 conns=[delta, wye, ] ppm_antifloat=1
New Transformer.tr_300204 phases=3 wdg=1 bus=3806259_p_1.1.2.3 kv=10.0 kVA=5000.0 wdg=2 bus=3806259_p_2.1.2.3 kv=0.4 kVA=5000.0 %imag=0 %loadloss=0.4 %noloadloss=0 XHL=3.0 conns=[delta, wye, ] ppm_antifloat=1
New Transformer.tr_300215 phases=3 wdg=1 bus=3808226_p_1.1.2.3 kv=10.0 kVA=5000.0 wdg=2 bus=3808226_p_2.1.2.3 kv=0.4 kVA=5000.0 %imag=0 %loadloss=0.4 %noloadloss=0 XHL=3.0 conns=[delta, wye, ] ppm_antifloat=1
New Transformer.tr_300217 phases=3 wdg=1 bus=3832430_p_1.1.2.3 kv=10.0 kVA=5000.0 wdg=2 bus=3832430_p_2.1.2.3 kv=0.4 kVA=5000.0 %imag=0 %loadloss=0.4 %noloadloss=0 XHL=3.0 conns=[delta, wye, ] ppm_antifloat=1
New Transformer.tr_300220 phases=3 wdg=1 bus=3837814_p_1.1.2.3 kv=10.0 kVA=5000.0 wdg=2 bus=3837814_p_2.1.2.3 kv=0.4 kVA=5000.0 %imag=0 %loadloss=0.4 %noloadloss=0 XHL=3.0 conns=[delta, wye, ] ppm_antifloat=1
New Transformer.tr_300221 phases=3 wdg=1 bus=3812828_p_1.1.2.3 kv=10.0 kVA=5000.0 wdg=2 bus=3812828_p_2.1.2.3 kv=0.4 kVA=5000.0 %imag=0 %loadloss=0.4 %noloadloss=0 XHL=3.0 conns=[delta, wye, ] ppm_antifloat=1
New Transformer.tr_300225 phases=3 wdg=1 bus=3806227_p_1.1.2.3 kv=10.0 kVA=5000.0 wdg=2 bus=3806227_p_2.1.2.3 kv=0.4 kVA=5000.0 %imag=0 %loadloss=0.4 %noloadloss=0 XHL=3.0 conns=[delta, wye, ] ppm_antifloat=1
New Transformer.tr_300226 phases=3 wdg=1 bus=3833751_p_1.1.2.3 kv=10.0 kVA=5000.0 wdg=2 bus=3833751_p_2.1.2.3 kv=0.4 kVA=5000.0 %imag=0 %loadloss=0.4 %noloadloss=0 XHL=3.0 conns=[delta, wye, ] ppm_antifloat=1
New Transformer.tr_300227 phases=3 wdg=1 bus=4002387_p_1.1.2.3 kv=10.0 kVA=5000.0 wdg=2 bus=4002387_p_2.1.2.3 kv=0.4 kVA=5000.0 %imag=0 %loadloss=0.4 %noloadloss=0 XHL=3.0 conns=[delta, wye, ] ppm_antifloat=1
New Transformer.tr_300231 phases=3 wdg=1 bus=3807864_p_1.1.2.3 kv=10.0 kVA=5000.0 wdg=2 bus=3807864_p_2.1.2.3 kv=0.4 kVA=5000.0 %imag=0 %loadloss=0.4 %noloadloss=0 XHL=3.0 conns=[delta, wye, ] ppm_antifloat=1
New Transformer.tr_300244 phases=3 wdg=1 bus=3823306_p_1.1.2.3 kv=10.0 kVA=5000.0 wdg=2 bus=3823306_p_2.1.2.3 kv=0.4 kVA=5000.0 %imag=0 %loadloss=0.4 %noloadloss=0 XHL=3.0 conns=[delta, wye, ] ppm_antifloat=1
New Transformer.tr_300245 phases=3 wdg=1 bus=4002388_p_1.1.2.3 kv=10.0 kVA=5000.0 wdg=2 bus=4002388_p_2.1.2.3 kv=0.4 kVA=5000.0 %imag=0 %loadloss=0.4 %noloadloss=0 XHL=3.0 conns=[delta, wye, ] ppm_antifloat=1
New Transformer.tr_300246 phases=3 wdg=1 bus=3808444_p_1.1.2.3 kv=10.0 kVA=5000.0 wdg=2 bus=3808444_p_2.1.2.3 kv=0.4 kVA=5000.0 %imag=0 %loadloss=0.4 %noloadloss=0 XHL=3.0 conns=[delta, wye, ] ppm_antifloat=1
New Transformer.tr_300247 phases=3 wdg=1 bus=3808199_p_1.1.2.3 kv=10.0 kVA=5000.0 wdg=2 bus=3808199_p_2.1.2.3 kv=0.4 kVA=5000.0 %imag=0 %loadloss=0.4 %noloadloss=0 XHL=3.0 conns=[delta, wye, ] ppm_antifloat=1
New Transformer.tr_301698 phases=3 wdg=1 bus=3812380_p_1.1.2.3 kv=10.0 kVA=5000.0 wdg=2 bus=3812380_p_2.1.2.3 kv=0.4 kVA=5000.0 %imag=0 %loadloss=0.4 %noloadloss=0 XHL=3.0 conns=[delta, wye, ] ppm_antifloat=1
New Transformer.tr_301733 phases=3 wdg=1 bus=3747858_p_1.1.2.3 kv=10.0 kVA=5000.0 wdg=2 bus=3747858_p_2.1.2.3 kv=0.4 kVA=5000.0 %imag=0 %loadloss=0.4 %noloadloss=0 XHL=3.0 conns=[delta, wye, ] ppm_antifloat=1
New Transformer.tr_301774 phases=3 wdg=1 bus=3832429_p_1.1.2.3 kv=10.0 kVA=5000.0 wdg=2 bus=3832429_p_2.1.2.3 kv=0.4 kVA=5000.0 %imag=0 %loadloss=0.4 %noloadloss=0 XHL=3.0 conns=[delta, wye, ] ppm_antifloat=1
New Transformer.tr_301775 phases=3 wdg=1 bus=3813328_p_1.1.2.3 kv=10.0 kVA=5000.0 wdg=2 bus=3813328_p_2.1.2.3 kv=0.4 kVA=5000.0 %imag=0 %loadloss=0.4 %noloadloss=0 XHL=3.0 conns=[delta, wye, ] ppm_antifloat=1
New Transformer.tr_301776 phases=3 wdg=1 bus=3813276_p_1.1.2.3 kv=10.0 kVA=5000.0 wdg=2 bus=3813276_p_2.1.2.3 kv=0.4 kVA=5000.0 %imag=0 %loadloss=0.4 %noloadloss=0 XHL=3.0 conns=[delta, wye, ] ppm_antifloat=1
New Transformer.tr_301777 phases=3 wdg=1 bus=3810166_p_1.1.2.3 kv=10.0 kVA=5000.0 wdg=2 bus=3810166_p_2.1.2.3 kv=0.4 kVA=5000.0 %imag=0 %loadloss=0.4 %noloadloss=0 XHL=3.0 conns=[delta, wye, ] ppm_antifloat=1
New Transformer.tr_301778 phases=3 wdg=1 bus=3813283_p_1.1.2.3 kv=10.0 kVA=5000.0 wdg=2 bus=3813283_p_2.1.2.3 kv=0.4 kVA=5000.0 %imag=0 %loadloss=0.4 %noloadloss=0 XHL=3.0 conns=[delta, wye, ] ppm_antifloat=1
New Transformer.tr_301858 phases=3 wdg=1 bus=3829947_p_1.1.2.3 kv=10.0 kVA=5000.0 wdg=2 bus=3829947_p_2.1.2.3 kv=0.4 kVA=5000.0 %imag=0 %loadloss=0.4 %noloadloss=0 XHL=3.0 conns=[delta, wye, ] ppm_antifloat=1
New Transformer.tr_301881 phases=3 wdg=1 bus=3844387_p_1.1.2.3 kv=10.0 kVA=5000.0 wdg=2 bus=3844387_p_2.1.2.3 kv=0.4 kVA=5000.0 %imag=0 %loadloss=0.4 %noloadloss=0 XHL=3.0 conns=[delta, wye, ] ppm_antifloat=1
New Transformer.tr_301908 phases=3 wdg=1 bus=4002471_p_1.1.2.3 kv=10.0 kVA=5000.0 wdg=2 bus=4002471_p_2.1.2.3 kv=0.4 kVA=5000.0 %imag=0 %loadloss=0.4 %noloadloss=0 XHL=3.0 conns=[delta, wye, ] ppm_antifloat=1
New Transformer.tr_301938 phases=3 wdg=1 bus=3747406_p_1.1.2.3 kv=10.0 kVA=5000.0 wdg=2 bus=3747406_p_2.1.2.3 kv=0.4 kVA=5000.0 %imag=0 %loadloss=0.4 %noloadloss=0 XHL=3.0 conns=[delta, wye, ] ppm_antifloat=1
New Transformer.tr_302313 phases=3 wdg=1 bus=3817188_p_1.1.2.3 kv=10.0 kVA=5000.0 wdg=2 bus=3817188_p_2.1.2.3 kv=0.4 kVA=5000.0 %imag=0 %loadloss=0.4 %noloadloss=0 XHL=3.0 conns=[delta, wye, ] ppm_antifloat=1
New Transformer.tr_302318 phases=3 wdg=1 bus=3832423_p_1.1.2.3 kv=10.0 kVA=5000.0 wdg=2 bus=3832423_p_2.1.2.3 kv=0.4 kVA=5000.0 %imag=0 %loadloss=0.4 %noloadloss=0 XHL=3.0 conns=[delta, wye, ] ppm_antifloat=1
New Transformer.tr_302407 phases=3 wdg=1 bus=3817921_p_1.1.2.3 kv=10.0 kVA=5000.0 wdg=2 bus=3817921_p_2.1.2.3 kv=0.4 kVA=5000.0 %imag=0 %loadloss=0.4 %noloadloss=0 XHL=3.0 conns=[delta, wye, ] ppm_antifloat=1
New Transformer.tr_302434 phases=3 wdg=1 bus=4002623_p_1.1.2.3 kv=10.0 kVA=5000.0 wdg=2 bus=4002623_p_2.1.2.3 kv=0.4 kVA=5000.0 %imag=0 %loadloss=0.4 %noloadloss=0 XHL=3.0 conns=[delta, wye, ] ppm_antifloat=1
New Transformer.tr_302565 phases=3 wdg=1 bus=13602024_p_1.1.2.3 kv=10.0 kVA=5000.0 wdg=2 bus=13602024_p_2.1.2.3 kv=0.4 kVA=5000.0 %imag=0 %loadloss=0.4 %noloadloss=0 XHL=3.0 conns=[delta, wye, ] ppm_antifloat=1
New Transformer.tr_302566 phases=3 wdg=1 bus=13981349_p_1.1.2.3 kv=10.0 kVA=5000.0 wdg=2 bus=13981349_p_2.1.2.3 kv=0.4 kVA=5000.0 %imag=0 %loadloss=0.4 %noloadloss=0 XHL=3.0 conns=[delta, wye, ] ppm_antifloat=1
New Transformer.tr_302567 phases=3 wdg=1 bus=3819054_p_1.1.2.3 kv=10.0 kVA=5000.0 wdg=2 bus=3819054_p_2.1.2.3 kv=0.4 kVA=5000.0 %imag=0 %loadloss=0.4 %noloadloss=0 XHL=3.0 conns=[delta, wye, ] ppm_antifloat=1
New Transformer.tr_302568 phases=3 wdg=1 bus=3819053_p_1.1.2.3 kv=10.0 kVA=5000.0 wdg=2 bus=3819053_p_2.1.2.3 kv=0.4 kVA=5000.0 %imag=0 %loadloss=0.4 %noloadloss=0 XHL=3.0 conns=[delta, wye, ] ppm_antifloat=1
New Transformer.tr_302569 phases=3 wdg=1 bus=3819057_p_1.1.2.3 kv=10.0 kVA=5000.0 wdg=2 bus=3819057_p_2.1.2.3 kv=0.4 kVA=5000.0 %imag=0 %loadloss=0.4 %noloadloss=0 XHL=3.0 conns=[delta, wye, ] ppm_antifloat=1
New Transformer.tr_302570 phases=3 wdg=1 bus=3832428_p_1.1.2.3 kv=10.0 kVA=5000.0 wdg=2 bus=3832428_p_2.1.2.3 kv=0.4 kVA=5000.0 %imag=0 %loadloss=0.4 %noloadloss=0 XHL=3.0 conns=[delta, wye, ] ppm_antifloat=1
New Transformer.tr_302579 phases=3 wdg=1 bus=13981284_p_1.1.2.3 kv=10.0 kVA=5000.0 wdg=2 bus=13981284_p_2.1.2.3 kv=0.4 kVA=5000.0 %imag=0 %loadloss=0.4 %noloadloss=0 XHL=3.0 conns=[delta, wye, ] ppm_antifloat=1
New Transformer.tr_302581 phases=3 wdg=1 bus=3819161_p_1.1.2.3 kv=10.0 kVA=5000.0 wdg=2 bus=3819161_p_2.1.2.3 kv=0.4 kVA=5000.0 %imag=0 %loadloss=0.4 %noloadloss=0 XHL=3.0 conns=[delta, wye, ] ppm_antifloat=1
New Transformer.tr_302631 phases=3 wdg=1 bus=3819554_p_1.1.2.3 kv=10.0 kVA=5000.0 wdg=2 bus=3819554_p_2.1.2.3 kv=0.4 kVA=5000.0 %imag=0 %loadloss=0.4 %noloadloss=0 XHL=3.0 conns=[delta, wye, ] ppm_antifloat=1
New Transformer.tr_302647 phases=3 wdg=1 bus=3819652_p_1.1.2.3 kv=10.0 kVA=5000.0 wdg=2 bus=3819652_p_2.1.2.3 kv=0.4 kVA=5000.0 %imag=0 %loadloss=0.4 %noloadloss=0 XHL=3.0 conns=[delta, wye, ] ppm_antifloat=1
New Transformer.tr_302676 phases=3 wdg=1 bus=3819909_p_1.1.2.3 kv=10.0 kVA=5000.0 wdg=2 bus=3819909_p_2.1.2.3 kv=0.4 kVA=5000.0 %imag=0 %loadloss=0.4 %noloadloss=0 XHL=3.0 conns=[delta, wye, ] ppm_antifloat=1
New Transformer.tr_302684 phases=3 wdg=1 bus=3819925_p_1.1.2.3 kv=10.0 kVA=5000.0 wdg=2 bus=3819925_p_2.1.2.3 kv=0.4 kVA=5000.0 %imag=0 %loadloss=0.4 %noloadloss=0 XHL=3.0 conns=[delta, wye, ] ppm_antifloat=1
New Transformer.tr_302866 phases=3 wdg=1 bus=3821714_p_1.1.2.3 kv=10.0 kVA=5000.0 wdg=2 bus=3821714_p_2.1.2.3 kv=0.4 kVA=5000.0 %imag=0 %loadloss=0.4 %noloadloss=0 XHL=3.0 conns=[delta, wye, ] ppm_antifloat=1
New Transformer.tr_302871 phases=3 wdg=1 bus=3821745_p_1.1.2.3 kv=10.0 kVA=5000.0 wdg=2 bus=3821745_p_2.1.2.3 kv=0.4 kVA=5000.0 %imag=0 %loadloss=0.4 %noloadloss=0 XHL=3.0 conns=[delta, wye, ] ppm_antifloat=1
New Transformer.tr_302943 phases=3 wdg=1 bus=3822157_p_1.1.2.3 kv=10.0 kVA=5000.0 wdg=2 bus=3822157_p_2.1.2.3 kv=0.4 kVA=5000.0 %imag=0 %loadloss=0.4 %noloadloss=0 XHL=3.0 conns=[delta, wye, ] ppm_antifloat=1
New Transformer.tr_303004 phases=3 wdg=1 bus=3843802_p_1.1.2.3 kv=10.0 kVA=5000.0 wdg=2 bus=3843802_p_2.1.2.3 kv=0.4 kVA=5000.0 %imag=0 %loadloss=0.4 %noloadloss=0 XHL=3.0 conns=[delta, wye, ] ppm_antifloat=1
New Transformer.tr_303005 phases=3 wdg=1 bus=3822777_p_1.1.2.3 kv=10.0 kVA=5000.0 wdg=2 bus=3822777_p_2.1.2.3 kv=0.4 kVA=5000.0 %imag=0 %loadloss=0.4 %noloadloss=0 XHL=3.0 conns=[delta, wye, ] ppm_antifloat=1
New Transformer.tr_303009 phases=3 wdg=1 bus=4002761_p_1.1.2.3 kv=10.0 kVA=5000.0 wdg=2 bus=4002761_p_2.1.2.3 kv=0.4 kVA=5000.0 %imag=0 %loadloss=0.4 %noloadloss=0 XHL=3.0 conns=[delta, wye, ] ppm_antifloat=1
New Transformer.tr_303079 phases=3 wdg=1 bus=3823305_p_1.1.2.3 kv=10.0 kVA=5000.0 wdg=2 bus=3823305_p_2.1.2.3 kv=0.4 kVA=5000.0 %imag=0 %loadloss=0.4 %noloadloss=0 XHL=3.0 conns=[delta, wye, ] ppm_antifloat=1
New Transformer.tr_303083 phases=3 wdg=1 bus=3823327_p_1.1.2.3 kv=10.0 kVA=5000.0 wdg=2 bus=3823327_p_2.1.2.3 kv=0.4 kVA=5000.0 %imag=0 %loadloss=0.4 %noloadloss=0 XHL=3.0 conns=[delta, wye, ] ppm_antifloat=1
New Transformer.tr_303092 phases=3 wdg=1 bus=3823362_p_1.1.2.3 kv=10.0 kVA=5000.0 wdg=2 bus=3823362_p_2.1.2.3 kv=0.4 kVA=5000.0 %imag=0 %loadloss=0.4 %noloadloss=0 XHL=3.0 conns=[delta, wye, ] ppm_antifloat=1
New Transformer.tr_303131 phases=3 wdg=1 bus=3823641_p_1.1.2.3 kv=10.0 kVA=5000.0 wdg=2 bus=3823641_p_2.1.2.3 kv=0.4 kVA=5000.0 %imag=0 %loadloss=0.4 %noloadloss=0 XHL=3.0 conns=[delta, wye, ] ppm_antifloat=1
New Transformer.tr_303193 phases=3 wdg=1 bus=3824296_p_1.1.2.3 kv=10.0 kVA=5000.0 wdg=2 bus=3824296_p_2.1.2.3 kv=0.4 kVA=5000.0 %imag=0 %loadloss=0.4 %noloadloss=0 XHL=3.0 conns=[delta, wye, ] ppm_antifloat=1
New Transformer.tr_303316 phases=3 wdg=1 bus=3825272_p_1.1.2.3 kv=10.0 kVA=5000.0 wdg=2 bus=3825272_p_2.1.2.3 kv=0.4 kVA=5000.0 %imag=0 %loadloss=0.4 %noloadloss=0 XHL=3.0 conns=[delta, wye, ] ppm_antifloat=1
New Transformer.tr_303731 phases=3 wdg=1 bus=3843796_p_1.1.2.3 kv=10.0 kVA=5000.0 wdg=2 bus=3843796_p_2.1.2.3 kv=0.4 kVA=5000.0 %imag=0 %loadloss=0.4 %noloadloss=0 XHL=3.0 conns=[delta, wye, ] ppm_antifloat=1
New Transformer.tr_303919 phases=3 wdg=1 bus=3829951_p_1.1.2.3 kv=10.0 kVA=5000.0 wdg=2 bus=3829951_p_2.1.2.3 kv=0.4 kVA=5000.0 %imag=0 %loadloss=0.4 %noloadloss=0 XHL=3.0 conns=[delta, wye, ] ppm_antifloat=1
New Transformer.tr_304007 phases=3 wdg=1 bus=3830690_p_1.1.2.3 kv=10.0 kVA=5000.0 wdg=2 bus=3830690_p_2.1.2.3 kv=0.4 kVA=5000.0 %imag=0 %loadloss=0.4 %noloadloss=0 XHL=3.0 conns=[delta, wye, ] ppm_antifloat=1
New Transformer.tr_304122 phases=3 wdg=1 bus=3843811_p_1.1.2.3 kv=10.0 kVA=5000.0 wdg=2 bus=3843811_p_2.1.2.3 kv=0.4 kVA=5000.0 %imag=0 %loadloss=0.4 %noloadloss=0 XHL=3.0 conns=[delta, wye, ] ppm_antifloat=1
New Transformer.tr_304123 phases=3 wdg=1 bus=3831406_p_1.1.2.3 kv=10.0 kVA=5000.0 wdg=2 bus=3831406_p_2.1.2.3 kv=0.4 kVA=5000.0 %imag=0 %loadloss=0.4 %noloadloss=0 XHL=3.0 conns=[delta, wye, ] ppm_antifloat=1
New Transformer.tr_304124 phases=3 wdg=1 bus=3831409_p_1.1.2.3 kv=10.0 kVA=5000.0 wdg=2 bus=3831409_p_2.1.2.3 kv=0.4 kVA=5000.0 %imag=0 %loadloss=0.4 %noloadloss=0 XHL=3.0 conns=[delta, wye, ] ppm_antifloat=1
New Transformer.tr_304264 phases=3 wdg=1 bus=3832353_p_1.1.2.3 kv=10.0 kVA=5000.0 wdg=2 bus=3832353_p_2.1.2.3 kv=0.4 kVA=5000.0 %imag=0 %loadloss=0.4 %noloadloss=0 XHL=3.0 conns=[delta, wye, ] ppm_antifloat=1
New Transformer.tr_304431 phases=3 wdg=1 bus=3833742_p_1.1.2.3 kv=10.0 kVA=5000.0 wdg=2 bus=3833742_p_2.1.2.3 kv=0.4 kVA=5000.0 %imag=0 %loadloss=0.4 %noloadloss=0 XHL=3.0 conns=[delta, wye, ] ppm_antifloat=1
New Transformer.tr_304433 phases=3 wdg=1 bus=3833749_p_1.1.2.3 kv=10.0 kVA=5000.0 wdg=2 bus=3833749_p_2.1.2.3 kv=0.4 kVA=5000.0 %imag=0 %loadloss=0.4 %noloadloss=0 XHL=3.0 conns=[delta, wye, ] ppm_antifloat=1
New Transformer.tr_304434 phases=3 wdg=1 bus=3833769_p_1.1.2.3 kv=10.0 kVA=5000.0 wdg=2 bus=3833769_p_2.1.2.3 kv=0.4 kVA=5000.0 %imag=0 %loadloss=0.4 %noloadloss=0 XHL=3.0 conns=[delta, wye, ] ppm_antifloat=1
New Transformer.tr_304451 phases=3 wdg=1 bus=3833877_p_1.1.2.3 kv=10.0 kVA=5000.0 wdg=2 bus=3833877_p_2.1.2.3 kv=0.4 kVA=5000.0 %imag=0 %loadloss=0.4 %noloadloss=0 XHL=3.0 conns=[delta, wye, ] ppm_antifloat=1
New Transformer.tr_304491 phases=3 wdg=1 bus=3834146_p_1.1.2.3 kv=10.0 kVA=5000.0 wdg=2 bus=3834146_p_2.1.2.3 kv=0.4 kVA=5000.0 %imag=0 %loadloss=0.4 %noloadloss=0 XHL=3.0 conns=[delta, wye, ] ppm_antifloat=1
New Transformer.tr_304492 phases=3 wdg=1 bus=3834151_p_1.1.2.3 kv=10.0 kVA=5000.0 wdg=2 bus=3834151_p_2.1.2.3 kv=0.4 kVA=5000.0 %imag=0 %loadloss=0.4 %noloadloss=0 XHL=3.0 conns=[delta, wye, ] ppm_antifloat=1
New Transformer.tr_304554 phases=3 wdg=1 bus=3834761_p_1.1.2.3 kv=10.0 kVA=5000.0 wdg=2 bus=3834761_p_2.1.2.3 kv=0.4 kVA=5000.0 %imag=0 %loadloss=0.4 %noloadloss=0 XHL=3.0 conns=[delta, wye, ] ppm_antifloat=1
New Transformer.tr_304601 phases=3 wdg=1 bus=3835138_p_1.1.2.3 kv=10.0 kVA=5000.0 wdg=2 bus=3835138_p_2.1.2.3 kv=0.4 kVA=5000.0 %imag=0 %loadloss=0.4 %noloadloss=0 XHL=3.0 conns=[delta, wye, ] ppm_antifloat=1
New Transformer.tr_304632 phases=3 wdg=1 bus=3835272_p_1.1.2.3 kv=10.0 kVA=5000.0 wdg=2 bus=3835272_p_2.1.2.3 kv=0.4 kVA=5000.0 %imag=0 %loadloss=0.4 %noloadloss=0 XHL=3.0 conns=[delta, wye, ] ppm_antifloat=1
New Transformer.tr_304766 phases=3 wdg=1 bus=3836499_p_1.1.2.3 kv=10.0 kVA=5000.0 wdg=2 bus=3836499_p_2.1.2.3 kv=0.4 kVA=5000.0 %imag=0 %loadloss=0.4 %noloadloss=0 XHL=3.0 conns=[delta, wye, ] ppm_antifloat=1
New Transformer.tr_304815 phases=3 wdg=1 bus=3836995_p_1.1.2.3 kv=10.0 kVA=5000.0 wdg=2 bus=3836995_p_2.1.2.3 kv=0.4 kVA=5000.0 %imag=0 %loadloss=0.4 %noloadloss=0 XHL=3.0 conns=[delta, wye, ] ppm_antifloat=1
New Transformer.tr_304884 phases=3 wdg=1 bus=3837609_p_1.1.2.3 kv=10.0 kVA=5000.0 wdg=2 bus=3837609_p_2.1.2.3 kv=0.4 kVA=5000.0 %imag=0 %loadloss=0.4 %noloadloss=0 XHL=3.0 conns=[delta, wye, ] ppm_antifloat=1
New Transformer.tr_304908 phases=3 wdg=1 bus=3837992_p_1.1.2.3 kv=10.0 kVA=5000.0 wdg=2 bus=3837992_p_2.1.2.3 kv=0.4 kVA=5000.0 %imag=0 %loadloss=0.4 %noloadloss=0 XHL=3.0 conns=[delta, wye, ] ppm_antifloat=1
New Transformer.tr_304909 phases=3 wdg=1 bus=3837995_p_1.1.2.3 kv=10.0 kVA=5000.0 wdg=2 bus=3837995_p_2.1.2.3 kv=0.4 kVA=5000.0 %imag=0 %loadloss=0.4 %noloadloss=0 XHL=3.0 conns=[delta, wye, ] ppm_antifloat=1
New Transformer.tr_305208 phases=3 wdg=1 bus=3998784_p_1.1.2.3 kv=10.0 kVA=5000.0 wdg=2 bus=3998784_p_2.1.2.3 kv=0.4 kVA=5000.0 %imag=0 %loadloss=0.4 %noloadloss=0 XHL=3.0 conns=[delta, wye, ] ppm_antifloat=1
New Transformer.tr_305246 phases=3 wdg=1 bus=3999222_p_1.1.2.3 kv=10.0 kVA=5000.0 wdg=2 bus=3999222_p_2.1.2.3 kv=0.4 kVA=5000.0 %imag=0 %loadloss=0.4 %noloadloss=0 XHL=3.0 conns=[delta, wye, ] ppm_antifloat=1
New Transformer.tr_314027 phases=3 wdg=1 bus=3995136_p_1.1.2.3 kv=10.0 kVA=5000.0 wdg=2 bus=3995136_p_2.1.2.3 kv=0.4 kVA=5000.0 %imag=0 %loadloss=0.4 %noloadloss=0 XHL=3.0 conns=[delta, wye, ] ppm_antifloat=1
New Transformer.tr_314088 phases=3 wdg=1 bus=3997578_p_1.1.2.3 kv=10.0 kVA=5000.0 wdg=2 bus=3997578_p_2.1.2.3 kv=0.4 kVA=5000.0 %imag=0 %loadloss=0.4 %noloadloss=0 XHL=3.0 conns=[delta, wye, ] ppm_antifloat=1
New Transformer.tr_314200 phases=3 wdg=1 bus=14016095_p_1.1.2.3 kv=10.0 kVA=5000.0 wdg=2 bus=14016095_p_2.1.2.3 kv=0.4 kVA=5000.0 %imag=0 %loadloss=0.4 %noloadloss=0 XHL=3.0 conns=[delta, wye, ] ppm_antifloat=1
New Transformer.tr_314201 phases=3 wdg=1 bus=14016261_p_1.1.2.3 kv=10.0 kVA=5000.0 wdg=2 bus=14016261_p_2.1.2.3 kv=0.4 kVA=5000.0 %imag=0 %loadloss=0.4 %noloadloss=0 XHL=3.0 conns=[delta, wye, ] ppm_antifloat=1
New Transformer.tr_314320 phases=3 wdg=1 bus=16370837_p_1.1.2.3 kv=10.0 kVA=5000.0 wdg=2 bus=16370837_p_2.1.2.3 kv=0.4 kVA=5000.0 %imag=0 %loadloss=0.4 %noloadloss=0 XHL=3.0 conns=[delta, wye, ] ppm_antifloat=1
New Transformer.tr_314323 phases=3 wdg=1 bus=3832397_p_1.1.2.3 kv=10.0 kVA=5000.0 wdg=2 bus=3832397_p_2.1.2.3 kv=0.4 kVA=5000.0 %imag=0 %loadloss=0.4 %noloadloss=0 XHL=3.0 conns=[delta, wye, ] ppm_antifloat=1
New Transformer.tr_323119 phases=3 wdg=1 bus=3806352_p_1.1.2.3 kv=10.0 kVA=5000.0 wdg=2 bus=3806352_p_2.1.2.3 kv=0.4 kVA=5000.0 %imag=0 %loadloss=0.4 %noloadloss=0 XHL=3.0 conns=[delta, wye, ] ppm_antifloat=1
New Transformer.tr_323409 phases=3 wdg=1 bus=3805129_p_1.1.2.3 kv=10.0 kVA=5000.0 wdg=2 bus=3805129_p_2.1.2.3 kv=0.4 kVA=5000.0 %imag=0 %loadloss=0.4 %noloadloss=0 XHL=3.0 conns=[delta, wye, ] ppm_antifloat=1
New Transformer.tr_323482 phases=3 wdg=1 bus=3805226_p_1.1.2.3 kv=10.0 kVA=5000.0 wdg=2 bus=3805226_p_2.1.2.3 kv=0.4 kVA=5000.0 %imag=0 %loadloss=0.4 %noloadloss=0 XHL=3.0 conns=[delta, wye, ] ppm_antifloat=1
New Transformer.tr_323501 phases=3 wdg=1 bus=3819344_p_1.1.2.3 kv=10.0 kVA=5000.0 wdg=2 bus=3819344_p_2.1.2.3 kv=0.4 kVA=5000.0 %imag=0 %loadloss=0.4 %noloadloss=0 XHL=3.0 conns=[delta, wye, ] ppm_antifloat=1
New Transformer.tr_327897 phases=3 wdg=1 bus=3827627_p_1.1.2.3 kv=10.0 kVA=5000.0 wdg=2 bus=3827627_p_2.1.2.3 kv=0.4 kVA=5000.0 %imag=0 %loadloss=0.4 %noloadloss=0 XHL=3.0 conns=[delta, wye, ] ppm_antifloat=1
